/*--------------------------------*- C++ -*----------------------------------*\
  =========                 |
  \\      /  F ield         | OpenFOAM: The Open Source CFD Toolbox
   \\    /   O peration     | Website:  https://openfoam.org
    \\  /    A nd           | Version:  11
     \\/     M anipulation  |
\*---------------------------------------------------------------------------*/
FoamFile
{
    format      ascii;
    class       polyBoundaryMesh;
    location    "constant/polyMesh";
    object      boundary;
}
// * * * * * * * * * * * * * * * * * * * * * * * * * * * * * * * * * * * * * //

5
(
    airfoil
    {
        type            wall;
        inGroups        List<word> 1(wall);
        nFaces          40;
        startFace       21865;
    }
    inlet
    {
        type            patch;
        nFaces          290;
        startFace       21905;
    }
    outlet
    {
        type            patch;
        nFaces          130;
        startFace       22195;
    }
    frontAndBack
    {
        type            empty;
        inGroups        List<word> 1(empty);
        nFaces          22100;
        startFace       22325;
    }
    defaultFaces
    {
        type            empty;
        inGroups        List<word> 1(empty);
        nFaces          10;
        startFace       44425;
    }
)

// ************************************************************************* //
