/*--------------------------------*- C++ -*----------------------------------*\
  =========                 |
  \\      /  F ield         | OpenFOAM: The Open Source CFD Toolbox
   \\    /   O peration     | Website:  https://openfoam.org
    \\  /    A nd           | Version:  11
     \\/     M anipulation  |
\*---------------------------------------------------------------------------*/
FoamFile
{
    format      ascii;
    class       volScalarField;
    location    "0";
    object      Ma;
}
// * * * * * * * * * * * * * * * * * * * * * * * * * * * * * * * * * * * * * //

dimensions      [0 0 0 0 0 0 0];

internalField   uniform 0.865591074;

boundaryField
{
    airfoil
    {
        type            calculated;
        value           uniform 0;
    }
    freestream
    {
        type            calculated;
        value           uniform 0.865591074;
    }
    frontAndBack
    {
        type            empty;
    }
}


// ************************************************************************* //
