/*--------------------------------*- C++ -*----------------------------------*\
  =========                 |
  \\      /  F ield         | OpenFOAM: The Open Source CFD Toolbox
   \\    /   O peration     | Website:  https://openfoam.org
    \\  /    A nd           | Version:  11
     \\/     M anipulation  |
\*---------------------------------------------------------------------------*/
FoamFile
{
    format      ascii;
    class       volVectorField;
    object      U;
}
// * * * * * * * * * * * * * * * * * * * * * * * * * * * * * * * * * * * * * //

dimensions      [0 1 -1 0 0 0 0];

internalField   uniform (680 0 0);

boundaryField
{
    freestream
    {
        type            freestreamVelocity;
        freestreamValue $internalField;
        value           $internalField;
    }

    airfoil
    {
        type            noSlip;
    }

    frontAndBack
    {
        type            empty;
    }
}

// ***************************caesar_wiratama_2023************************** //
// ************************************************************************* //
